* C:\Users\oguej\AppData\Local\Programs\ADI\LTspice\AM_Transmitter.asc
* Generated by LTspice 24.1.10 for Windows.
V1 N001 0 4.5V
Q2 N002 N013 N014 0 NPN
Q3 N003 N006 N014 0 NPN
Q4 N014 N018 N021 0 NPN
R5 N021 0 20k
R6 N018 0 11k
R7 N001 N018 18k
C3 N013 0 0.1u
R8 N013 N006 20k
R9 N002 N003 20k
C5 N017 N016 0.1u
V2 N017 0 SINE(0 0.5 1k)
R11 0 N013 9.1k
R12 N013 N001 2k
C4 N003 N002 26.9p
L2 N001 N002 470µ
L3 N003 N001 470µ
V3 N012 0 SINE(0 1 1Meg)
C1 N006 N012 0.1µ
Q1 N019 N016 N023 0 NPN
R1 N001 N019 1.1k
R2 N023 0 500
R3 N001 N016 5k
R4 N016 0 2k
C2 N019 N018 0.1µ
C8 0 N009 10p
Q6 N001 N003 P001 0 NPN
Q7 N001 P001 N008 0 NPN
R14 N008 0 100
Q5 N004 N011 N015 0 NPN
Q8 N005 N007 N015 0 NPN
Q9 N015 N020 N022 0 NPN
R15 N022 0 1k
R16 N020 0 1k
R17 N001 N020 400
C9 N011 0 0.1µ
R18 N004 N005 20k
R19 0 N011 41k
R20 N011 N001 2.9k
C10 N005 N004 26.9p
L4 N001 N004 470µ
L5 N005 N001 470µ
R10 N011 N007 100
C6 P002 N008 0.1µ
C7 N007 N010 0.1µ
R13 N009 P002 0.1
E1 N010 0 N009 0 1e-6
.model NPN NPN
.model PNP PNP
.lib C:\Users\oguej\AppData\Local\LTspice\lib\cmp\standard.bjt
.tran 0 1 0 1u uic
* .op
.backanno
.end